/*--------------------------------*- C++ -*----------------------------------*\
  =========                 |
  \\      /  F ield         | OpenFOAM: The Open Source CFD Toolbox
   \\    /   O peration     | Website:  https://openfoam.org
    \\  /    A nd           | Version:  7
     \\/     M anipulation  |
\*---------------------------------------------------------------------------*/
FoamFile
{
    version     2.0;
    format      ascii;
    class       polyBoundaryMesh;
    location    "constant/polyMesh";
    object      boundary;
}
// * * * * * * * * * * * * * * * * * * * * * * * * * * * * * * * * * * * * * //

3
(
    wall
    {
        type            default;
        nFaces          142;
        startFace       300;
    }
    inlet
    {
        type            default;
        nFaces          4;
        startFace       442;
    }
    outlet
    {
        type            default;
        nFaces          4;
        startFace       446;
    }
)

// ************************************************************************* //
